Version 4.1
SHEET 1 1192 680
WIRE 464 -192 240 -192
WIRE 544 -192 464 -192
WIRE 464 -160 464 -192
WIRE 464 -48 464 -80
WIRE 496 -48 464 -48
WIRE 464 -32 464 -48
WIRE 240 -16 240 -192
WIRE 96 48 32 48
WIRE 208 48 176 48
WIRE 240 48 208 48
WIRE 256 48 240 48
WIRE 368 48 336 48
WIRE 592 48 480 48
WIRE 544 96 544 -192
WIRE 368 112 368 48
WIRE 480 112 480 48
WIRE 512 112 480 112
WIRE 32 128 32 48
WIRE 592 128 592 48
WIRE 592 128 576 128
WIRE 512 144 416 144
WIRE 208 160 208 48
WIRE 496 192 496 -48
WIRE 544 192 544 160
WIRE 544 192 496 192
WIRE 672 208 672 128
WIRE 368 224 368 192
WIRE 416 224 416 144
WIRE 416 224 368 224
WIRE 32 240 32 208
WIRE 368 256 368 224
WIRE 32 336 32 320
WIRE 208 336 208 224
WIRE 208 336 32 336
WIRE 240 336 240 112
WIRE 240 336 208 336
WIRE 368 336 240 336
WIRE 672 336 672 272
WIRE 672 336 368 336
WIRE 368 400 368 336
FLAG 464 -32 0
FLAG 368 400 0
SYMBOL voltage 32 112 R0
WINDOW 123 0 0 Left 0
WINDOW 39 0 0 Left 0
SYMATTR InstName V1
SYMATTR Value 20
SYMBOL res 192 32 R90
WINDOW 0 0 56 VBottom 2
WINDOW 3 32 56 VTop 2
SYMATTR InstName R1
SYMATTR Value 1k
SYMBOL res 352 32 R90
WINDOW 0 0 56 VBottom 2
WINDOW 3 32 56 VTop 2
SYMATTR InstName R2
SYMATTR Value 10k
SYMBOL res 384 208 R180
WINDOW 0 36 76 Left 2
WINDOW 3 36 40 Left 2
SYMATTR InstName R3
SYMATTR Value 180k
SYMBOL res 384 352 R180
WINDOW 0 36 76 Left 2
WINDOW 3 36 40 Left 2
SYMATTR InstName R4
SYMATTR Value 10k
SYMBOL cap 656 208 R0
SYMATTR InstName C1
SYMATTR Value 330p
SYMBOL res 688 112 R90
WINDOW 0 0 56 VBottom 2
WINDOW 3 32 56 VTop 2
SYMATTR InstName R5
SYMATTR Value 1k
SYMBOL voltage 464 -176 R0
WINDOW 123 0 0 Left 0
WINDOW 39 0 0 Left 0
SYMATTR InstName V2
SYMATTR Value 3.3
SYMBOL OpAmps\\OP284 544 64 R0
SYMATTR InstName U1
SYMBOL TVSdiode 192 160 R0
SYMATTR InstName D1
SYMATTR Value SMBJ24CA
SYMBOL voltage 32 224 R0
WINDOW 123 0 0 Left 0
WINDOW 39 0 0 Left 0
SYMATTR InstName V3
SYMATTR Value PULSE(0 15 0.2 1e-9 1e-9 1e-3 1.1e-3 1)
SYMBOL schottky 256 112 R180
WINDOW 0 24 64 Left 2
WINDOW 3 24 0 Left 2
SYMATTR InstName D2
SYMBOL schottky 224 -16 R0
SYMATTR InstName D3
TEXT 128 424 Left 2 !.tran 0 0.5 0 0.001
TEXT -416 152 Left 2 ;20VPP, with a spike of 15V at 0.2S
