Version 4.1
SHEET 1 880 680
WIRE 352 -112 336 -112
WIRE 480 -112 352 -112
WIRE 400 -80 272 -80
WIRE 480 -80 480 -112
WIRE 208 -32 208 -112
WIRE 400 -32 400 -80
WIRE 400 -32 368 -32
WIRE 416 -32 400 -32
WIRE 336 96 336 -112
WIRE 112 144 32 144
WIRE 176 144 112 144
WIRE 320 144 176 144
WIRE 464 144 416 144
WIRE 512 144 464 144
WIRE 528 144 512 144
WIRE 640 144 608 144
WIRE 736 144 640 144
WIRE 768 144 736 144
WIRE 512 208 512 144
FLAG 32 224 0
FLAG 464 208 0
FLAG 640 208 0
FLAG 112 144 5V
FLAG 736 224 0
FLAG -160 -32 0
FLAG 512 352 0
FLAG 272 16 0
FLAG 480 16 5V
FLAG 208 -192 PWM
FLAG 368 48 5V
FLAG 352 -192 0
FLAG -80 -32 PWM
SYMBOL voltage 32 128 R0
WINDOW 123 0 0 Left 0
WINDOW 39 0 0 Left 0
SYMATTR InstName V1
SYMATTR Value 5
SYMBOL cap 160 144 R0
SYMATTR InstName C1
SYMATTR Value 100Á
SYMBOL schottky 480 208 R180
WINDOW 0 24 64 Left 2
WINDOW 3 24 0 Left 2
SYMATTR InstName D1
SYMATTR Value 1N5819
SYMBOL ind 624 128 R90
WINDOW 0 5 56 VBottom 2
WINDOW 3 32 56 VTop 2
SYMATTR InstName L1
SYMATTR Value 470Á
SYMBOL cap 624 144 R0
SYMATTR InstName C2
SYMATTR Value 220Á
SYMATTR SpiceLine Rser=0.05
SYMBOL voltage -64 -32 R90
WINDOW 0 -32 56 VBottom 2
WINDOW 3 32 56 VTop 2
WINDOW 123 0 0 Left 0
WINDOW 39 0 0 Left 0
SYMATTR InstName V3
SYMATTR Value PULSE(0 3.3 0 1u 1u 5u 10u)
SYMBOL res 720 128 R0
SYMATTR InstName R4
SYMATTR Value 1k
SYMBOL pmos 416 96 R90
SYMATTR InstName M1
SYMATTR Value BSS84
SYMBOL res 496 192 R0
SYMATTR InstName R1
SYMATTR Value 22
SYMBOL cap 496 288 R0
SYMATTR InstName C3
SYMATTR Value 1n
SYMBOL npn 208 -80 R0
SYMATTR InstName Q1
SYMATTR Value BC547B
SYMBOL pnp 416 -80 R0
SYMATTR InstName Q2
SYMATTR Value BC556B
SYMBOL res 192 -208 R0
SYMATTR InstName R2
SYMATTR Value 1k
SYMBOL res 352 -48 R0
SYMATTR InstName R3
SYMATTR Value 1k
SYMBOL res 336 -208 R0
SYMATTR InstName R5
SYMATTR Value 1k
TEXT -128 248 Left 2 !.tran 0 0.2 0.1 0.0000001
