Version 4.1
SHEET 1 880 680
WIRE 336 -16 272 -16
WIRE 256 48 192 48
WIRE 272 48 272 -16
WIRE 336 64 336 -16
WIRE 256 80 256 48
WIRE 272 80 256 80
WIRE 336 144 336 64
WIRE 448 160 384 160
WIRE 560 176 512 176
WIRE 336 192 336 144
WIRE 448 192 336 192
WIRE 560 208 560 176
WIRE -64 240 -112 240
WIRE -64 256 -64 240
WIRE 64 256 16 256
WIRE 112 256 64 256
WIRE 256 256 256 192
WIRE 256 256 192 256
WIRE 384 256 384 160
WIRE 384 256 256 256
WIRE 432 256 384 256
WIRE 560 256 560 208
WIRE 560 256 512 256
WIRE -112 272 -112 240
WIRE -64 272 -64 256
WIRE 192 336 192 256
WIRE -112 368 -112 352
WIRE -64 368 -112 368
FLAG 0 -112 33V
FLAG 0 -32 0
FLAG 192 -32 33V
FLAG 192 128 0
FLAG 304 32 33V
FLAG 304 96 0
FLAG 560 208 out
FLAG 336 144 05v
FLAG 480 208 0
FLAG 480 144 33V
FLAG 256 336 0
FLAG 192 192 33V
FLAG -64 448 0
FLAG 64 320 0
SYMBOL voltage 0 -128 R0
WINDOW 123 0 0 Left 0
WINDOW 39 0 0 Left 0
SYMATTR InstName V1
SYMATTR Value 3.3V
SYMBOL OpAmps\\UniversalOpAmp 304 64 R0
SYMATTR InstName U1
SYMBOL res 176 -48 R0
SYMATTR InstName R1
SYMATTR Value 56k
SYMBOL res 176 32 R0
SYMATTR InstName R2
SYMATTR Value 10k
SYMBOL OpAmps\\UniversalOpAmp 480 176 R0
SYMATTR InstName U2
SYMBOL res 528 240 R90
WINDOW 0 0 56 VBottom 2
WINDOW 3 32 56 VTop 2
SYMATTR InstName R3
SYMATTR Value 10k
SYMBOL res 208 240 R90
WINDOW 0 0 56 VBottom 2
WINDOW 3 32 56 VTop 2
SYMATTR InstName R5
SYMATTR Value 200k
SYMBOL schottky 256 176 R90
WINDOW 0 0 32 VBottom 2
WINDOW 3 32 32 VTop 2
SYMATTR InstName D2
SYMBOL schottky 192 352 R270
WINDOW 0 32 32 VTop 2
WINDOW 3 0 32 VBottom 2
SYMATTR InstName D3
SYMBOL voltage -64 352 R0
WINDOW 123 0 0 Left 0
WINDOW 39 0 0 Left 0
SYMATTR InstName V3
SYMATTR Value 7.5
SYMBOL res 32 240 R90
WINDOW 0 0 56 VBottom 2
WINDOW 3 32 56 VTop 2
SYMATTR InstName R4
SYMATTR Value 1k
SYMBOL TVSdiode 48 256 R0
SYMATTR InstName D1
SYMATTR Value SMBJ24CA
SYMBOL voltage -112 256 R0
WINDOW 123 0 0 Left 0
WINDOW 39 0 0 Left 0
SYMATTR InstName V2
SYMATTR Value PULSE(0 28 0.001 0.0001 0.0001 0.00001 0 1)
TEXT -272 400 Left 2 ;.op
TEXT -272 432 Left 2 !.tran 0 0.1 0 0.000001
